Version 4
SHEET 1 2368 1160
WIRE 1920 624 1760 624
WIRE 2000 624 1920 624
WIRE 2048 624 2000 624
WIRE 2144 624 2048 624
WIRE 1760 688 1760 624
WIRE 1664 736 1584 736
WIRE 1696 736 1664 736
WIRE 1808 736 1760 736
WIRE 2144 736 2144 624
WIRE 2000 752 2000 624
WIRE 1584 784 1584 736
WIRE 1936 784 1872 784
WIRE 1664 800 1664 736
WIRE 1824 800 1664 800
WIRE 1840 800 1824 800
WIRE 1936 800 1936 784
WIRE 2048 800 2048 624
WIRE 2048 800 2000 800
WIRE 1920 864 1920 624
WIRE 1920 864 1872 864
WIRE 1584 896 1584 864
WIRE 1760 896 1760 784
WIRE 1760 896 1584 896
WIRE 1808 896 1808 736
WIRE 1808 896 1760 896
WIRE 1824 896 1824 848
WIRE 1824 896 1808 896
WIRE 2000 896 2000 848
WIRE 2000 896 1824 896
WIRE 2144 896 2144 816
WIRE 2144 896 2000 896
WIRE 1760 944 1760 896
FLAG 1760 944 GND
IOPIN 1760 944 In
SYMBOL voltage 1584 768 R0
WINDOW 123 0 0 Left 0
WINDOW 39 0 0 Left 0
SYMATTR InstName V2
SYMATTR Value 2.5
SYMBOL MinedaLIB\\NMOS_MIN 1696 736 R0
SYMATTR InstName M1#
SYMATTR Value2 l=0.5u w=10u m=5
SYMBOL MinedaLIB\\PMOS_MIN 1936 800 R0
SYMATTR InstName M2#
SYMATTR Value2 l=0.5u w=10u m=10
SYMBOL voltage 2144 720 R0
SYMATTR InstName V3
SYMATTR Value 5
SYMBOL e 1872 768 R0
SYMATTR InstName E1
SYMATTR Value -1
TEXT 1288 984 Left 2 ;.dc v3 0 5 0.01 V2 0 3 0.5
