Version 4
SHEET 1 1068 680
TEXT -32 176 Left 2 !.include "%HOMEPATH%/KLayout/salt/PTS06/Technology/tech/models/MinedaPTS06_TT"
